&time_control
 run_days                            = 1,
 run_hours                           = 18,
 run_minutes                         = 0,
 run_seconds                         = 0,
 start_year                          = 2014, 2014, 2014,
 start_month                         = 07, 07, 07,
 start_day                           = 03, 03, 03,
 start_hour                          = 00, 00, 00,
 start_minute                        = 00, 00, 00,
 start_second                        = 00, 00, 00,
 end_year                            = 2014, 2014, 2014,
 end_month                           = 07, 07, 07,
 end_day                             = 04, 04, 04,
 end_hour                            = 18, 18, 18,
 end_minute                          = 00, 00, 00,
 end_second                          = 00, 00, 00,
 interval_seconds                    = 10800,
 input_from_file                     = .true.,.true.,.true.,
 history_interval                    = 60,60,30,
 frames_per_outfile                  = 1, 1, 1,
 restart                             = .false.,
 restart_interval                    = 180,
 io_form_history                     = 2,
 io_form_restart                     = 2,
 io_form_input                       = 2,
 io_form_boundary                    = 2,
 debug_level                         = 5,
 auxinput1_inname                    = "met_em.d<domain>.<date>",
 force_use_old_data                  = .true.,

 auxinput5_inname                    = 'wrfchemi_d<domain>',
 auxinput8_inname                    = 'wrfchemi_gocart_bg_d<domain>',
 io_form_auxinput5 = 2,
 io_form_auxinput8 = 2,
 auxinput5_interval_m = 100000,100000,100000,
 auxinput8_interval_m = 100000,100000,100000,

 auxinput12_inname = "wrf_ust_input_d<domain>",
 auxinput12_interval = 100000,100000,100000,
 io_form_auxinput12 = 2,

/

 &domains
 time_step                           = 90,
 time_step_fract_num                 = 0,
 time_step_fract_den                 = 1,
 max_dom                             = 3,
 s_we                                =   1,   1,   1,
 e_we                                = 223, 286, 340,
 s_sn                                =   1,   1,   1,
 e_sn                                = 176, 262, 340,
 e_vert                              = 41, 41, 41,
 num_metgrid_levels                  = 40,
 num_metgrid_soil_levels             = 4,
 dx                                  = 18000, 6000, 2000,
 dy                                  = 18000, 6000, 2000,
 grid_id                             = 1, 2, 3,
 parent_id                           = 0, 1, 2,
 i_parent_start                      = 1, 35, 135,
 j_parent_start                      = 1, 27, 40,
 parent_grid_ratio                   = 1, 3, 3,
 parent_time_step_ratio              = 1, 3, 3,
 p_top_requested                     = 5000,
 feedback                            = 0,
 smooth_option                       = 0,
 zap_close_levels                    = 50,
 interp_type                         = 2,
 t_extrap_type                       = 2,
 force_sfc_in_vinterp                = 0,
 use_levels_below_ground             = .true.,
 use_surface                         = .true.,
 lagrange_order                      = 1,
 /
 sfcp_to_sfcp                        = .true.,

 &physics
 num_land_cat                        = 21,
 mp_physics                          = 8, 8, 8,
 progn                               = 0,
 ra_lw_physics                       = 4, 4, 4,
 ra_sw_physics                       = 4, 4, 4,
 radt                                = 5,
 sf_sfclay_physics                   = 5, 5, 5,
 sf_surface_physics                  = 2, 2, 2,
 bl_pbl_physics                      = 5, 5, 5,
 bldt                                = 0,
 cu_physics                          = 14, 14, 0,
 cu_diag                             = 1,
 cudt                                = 0,
 ishallow                            = 0,
 isfflx                              = 1,
 ifsnow                              = 1,
 icloud                              = 1,
 icloud_bl                           = 1,
 surface_input_source                = 1,
 num_soil_layers                     = 4,
 sf_urban_physics                    = 0,
 mp_zero_out                         = 0,
 maxiens                             = 1,
 maxens                              = 3,
 maxens2                             = 3,
 maxens3                             = 16,
 ensdim                              = 144,
 slope_rad                           = 1,
 topo_shading                        = 0,
 cu_rad_feedback                     = .true.,
 do_radar_ref                        = 1,
 /


 &fdda
 /

 &dynamics
 rk_ord                              = 3,
 w_damping                           = 1,
 diff_opt                            = 1,
 km_opt                              = 4,
 diff_6th_opt                        = 0,    0,    0,
 diff_6th_factor                     = 0.12, 0.12, 0.12,
 damp_opt                            = 1,
 zdamp                               = 5000.,
 dampcoef                            = 0.02, 0.02, 0.02,
 khdif                               = 0,  0,  0,
 kvdif                               = 0,  0,  0,
 non_hydrostatic                     = .true., .true., .true.,
 moist_adv_opt                       = 1,
 scalar_adv_opt                      = 1,
 chem_adv_opt                        = 1,
 tke_adv_opt                         = 1,
 time_step_sound                     = 4,
 h_mom_adv_order                     = 5,
 v_mom_adv_order                     = 3,
 h_sca_adv_order                     = 5,
 v_sca_adv_order                     = 3,
 /

 &bdy_control
 spec_bdy_width                      = 5,
 spec_zone                           = 1,
 relax_zone                          = 4,
 specified                           = .true., .false., .false.,
 nested                              = .false., .true., .true.,
 /

 &grib2
 /

 &chem
 kemit                               = 1,
 chem_opt                            = 301, 301, 301,
 bioemdt                             = 0,
 photdt                              = 0,
 chemdt                              = 0,
 io_style_emissions                  = 2,
 ted_ust_input  		     = 3,
 emiss_opt                           = 5,          5, 5,
 emiss_inpt_opt                      = 1,
 emiss_opt_vol                       = 0,          0, 0,
 emiss_ash_hgt                       = 20000.,
 chem_in_opt                         = 0,          0, 0,
 phot_opt                            = 0,          0, 0,
 gas_drydep_opt                      = 1,          1, 1,
 aer_drydep_opt                      = 1,          1, 1,
 bio_emiss_opt                       = 0,          0, 0,
 ne_area                             = 0,
 dust_opt                            = 3,
 dust_schme                          = 3,
 dmsemis_opt                         = 1,
 seas_opt                            = 1,
 depo_fact                           = 0.25,
 gas_bc_opt                          = 1,          0, 0,
 gas_ic_opt                          = 1,          0, 0,
 aer_bc_opt                          = 1,          0, 0,
 aer_ic_opt                          = 1,          0, 0,
 gaschem_onoff                       = 0,          0, 0,
 aerchem_onoff                       = 0,          0, 0,
 wetscav_onoff                       = 0,          0, 0,
 cldchem_onoff                       = 0,          0, 0,
 vertmix_onoff                       = 0,          0, 0,
 chem_conv_tr                        = 0,          0, 0,
 conv_tr_wetscav                     = 0,          0, 0,
 conv_tr_aqchem                      = 0,          0, 0,
 biomass_burn_opt                    = 0,          0, 0,
 plumerisefire_frq                   = 30,         0, 0,
 have_bcs_chem                       = .false., .false., .false.,
 aer_ra_feedback                     = 0,
 aer_op_opt                          = 2,          2, 2,
 opt_pars_out                        = 1,
 diagnostic_chem                     = 0,
/

 &namelist_quilt
 nio_tasks_per_group = 0,
 nio_groups = 1,
 /
