&share
 wrf_core = 'ARW',
 max_dom = 3,
 start_date = '2014-07-03_00:00:00', '2014-07-03_00:00:00', '2014-07-03_00:00:00',
 end_date   = '2014-07-04_18:00:00', '2014-07-04_18:00:00', '2014-07-04_18:00:00',
 interval_seconds = 10800
 io_form_geogrid = 2,
 debug_level = 0
/

&geogrid
 parent_id         =   1,   1,   2,
 parent_grid_ratio =   1,   3,   3,
 i_parent_start    =   1,  35,  135,
 j_parent_start    =   1,  27,  40,
 e_we              =  223, 286, 340,
 e_sn              =  176, 262, 340,
 !
 !!!!!!!!!!!!!!!!!!!!!!!!!!!! IMPORTANT NOTE !!!!!!!!!!!!!!!!!!!!!!!!!!!!
 ! The default datasets used to produce the MAXSNOALB and ALBEDO12M
 ! fields have changed in WPS v4.0. These fields are now interpolated
 ! from MODIS-based datasets.
 !
 ! To match the output given by the default namelist.wps in WPS v3.9.1,
 ! the following setting for geog_data_res may be used:
 !
 ! geog_data_res = 'maxsnowalb_ncep+albedo_ncep+default', 'maxsnowalb_ncep+albedo_ncep+default', 
 !
 !!!!!!!!!!!!!!!!!!!!!!!!!!!! IMPORTANT NOTE !!!!!!!!!!!!!!!!!!!!!!!!!!!!
 !
 geog_data_res = 'default','default','default'
 dx = 18000,
 dy = 18000,
 map_proj = 'lambert',
 ref_lat   =  39.00,
 ref_lon   =  -108.00,
 truelat1  =  39.0,
 truelat2  =  39.0,
 stand_lon =  -108.00,
/

&ungrib
 out_format = 'WPS',
 prefix = 'NAM',
/

&metgrid
 fg_name = 'NAM','RAP'
 io_form_metgrid = 2, 
/
